RF_Spanish_representative_feeders/RFs_OpenDSS/RF3.dss

clear

new circuit.feeder49
!-- Linecodes ------------------------------------------------------------------------------------------------------

redirect linecode.txt
!-- Loadshapes ------------------------------------------------------------------------------------------------------

redirect Loadshape.txt
! -TRFRMS-----------------------------------------------------------------------------------------------------------------
New line.mv Bus1=sourcebus.1.2.3 Bus2=9.1.2.3 phases=3 Linecode=101 Length=5 Units=m
New Transformer.td400895 windings=2 Buses=[9 39.1.2.3.4] Conns=[DELTA WYE] kVs=[22.0 0.42] kVAs=[630.0 630.0] XHL=4.0 phases=3 sub=y 
New Reactor.Yngrnd phases=1 bus1=39.4 bus2=39.0 R=5 X=0.01 
! -LINES-----------------------------------------------------------------------------------------------------------------
New Line.1006_0 Bus1=1012.1.2.3.4 Bus2=1006_1.1.2.3.4 phases=3 linecode=350 Length=1.434 Units=m
New Line.1002_4 Bus1=1002_4.1.2.3.4 Bus2=1002_5.1.2.3.4 phases=3 linecode=350 Length=0.219 Units=m
New Line.1014 Bus1=1014_2.1.2.3.4 Bus2=1014.1.2.3.4 phases=3 linecode=250 Length=1.15 Units=m
New Line.1013_2 Bus1=1013_2.1.2.3.4 Bus2=1013_3.1.2.3.4 phases=3 linecode=350 Length=0.064 Units=m
New Line.cktbk49 Bus1=39_2.1.2.3.4 Bus2=2664.1.2.3.4 phases=3 linecode=102 Length=0.5 Units=m
New Line.1009_0 Bus1=1008.1.2.3.4 Bus2=1009_1.1.2.3.4 phases=3 linecode=350 Length=11.003 Units=m
New Line.1005_2 Bus1=1005_2.1.2.3.4 Bus2=1005_3.1.2.3.4 phases=3 linecode=350 Length=1.0 Units=m
New Line.1015_0 Bus1=1003.1.2.3.4 Bus2=1015_1.1.2.3.4 phases=3 linecode=350 Length=1.98 Units=m
New Line.1010 Bus1=1008.1.2.3.4 Bus2=1010.1.2.3.4 phases=3 linecode=309 Length=1.541 Units=m  
New Line.1015 Bus1=1015_1.1.2.3.4 Bus2=1015.1.2.3.4 phases=3 linecode=350 Length=14.714 Units=m
New Line.feeder49 Bus1=39.1.2.3.4 Bus2=39_2.1.2.3.4 phases=3 linecode=205 Length=2.062 Units=m
New Line.1005_1 Bus1=1005_1.1.2.3.4 Bus2=1005_2.1.2.3.4 phases=3 linecode=350 Length=1.396 Units=m
New Line.1013_3 Bus1=1013_3.1.2.3.4 Bus2=1013_4.1.2.3.4 phases=3 linecode=350 Length=0.086 Units=m
New Line.1013_1 Bus1=1013_1.1.2.3.4 Bus2=1013_2.1.2.3.4 phases=3 linecode=350 Length=0.161 Units=m
New Line.1013_5 Bus1=1013_5.1.2.3.4 Bus2=1013_6.1.2.3.4 phases=3 linecode=350 Length=0.09 Units=m
New Line.1011 Bus1=1006.1.2.3.4 Bus2=1011.1.2.3.4 phases=3 linecode=309 Length=2.896 Units=m  
New Line.1014_1 Bus1=1014_1.1.2.3.4 Bus2=1014_2.1.2.3.4 phases=3 linecode=250 Length=2.394 Units=m
New Line.1013_6 Bus1=1013_6.1.2.3.4 Bus2=1013_7.1.2.3.4 phases=3 linecode=350 Length=0.102 Units=m
New Line.1013_4 Bus1=1013_4.1.2.3.4 Bus2=1013_5.1.2.3.4 phases=3 linecode=350 Length=0.067 Units=m
New Line.1014_0 Bus1=1013.1.2.3.4 Bus2=1014_1.1.2.3.4 phases=3 linecode=250 Length=3.516 Units=m
New Line.1003_0 Bus1=1007.1.2.3.4 Bus2=1003_1.1.2.3.4 phases=3 linecode=350 Length=15.817 Units=m
New Line.1002_7 Bus1=1002_7.1.2.3.4 Bus2=1002_8.1.2.3.4 phases=3 linecode=350 Length=0.526 Units=m
New Line.1004 Bus1=1007.1.2.3.4 Bus2=1004.1.2.3.4 phases=3 linecode=350 Length=33.943 Units=m 
New Line.1002 Bus1=1002_8.1.2.3.4 Bus2=1002.1.2.3.4 phases=3 linecode=350 Length=21.886 Units=m
New Line.1013_0 Bus1=1004.1.2.3.4 Bus2=1013_1.1.2.3.4 phases=3 linecode=350 Length=0.354 Units=m
New Line.1002_6 Bus1=1002_6.1.2.3.4 Bus2=1002_7.1.2.3.4 phases=3 linecode=350 Length=0.189 Units=m
New Line.1003 Bus1=1003_1.1.2.3.4 Bus2=1003.1.2.3.4 phases=3 linecode=350 Length=12.913 Units=m
New Line.1002_1 Bus1=1002_1.1.2.3.4 Bus2=1002_2.1.2.3.4 phases=3 linecode=350 Length=0.228 Units=m
New Line.mv9 Bus1=source.1.2.3 Bus2=9.1.2.3 phases=3 linecode=101 Length=5.0 Units=m
New Line.1005_0 Bus1=1012.1.2.3.4 Bus2=1005_1.1.2.3.4 phases=3 linecode=350 Length=0.83 Units=m
New Line.1002_0 Bus1=2664.1.2.3.4 Bus2=1002_1.1.2.3.4 phases=3 linecode=350 Length=1.205 Units=m
New Line.1002_2 Bus1=1002_2.1.2.3.4 Bus2=1002_3.1.2.3.4 phases=3 linecode=350 Length=0.275 Units=m
New Line.1013_9 Bus1=1013_9.1.2.3.4 Bus2=1013_10.1.2.3.4 phases=3 linecode=350 Length=0.076 Units=m
New Line.1002_3 Bus1=1002_3.1.2.3.4 Bus2=1002_4.1.2.3.4 phases=3 linecode=350 Length=0.281 Units=m
New Line.1013 Bus1=1013_10.1.2.3.4 Bus2=1013.1.2.3.4 phases=3 linecode=350 Length=0.89 Units=m
New Line.1012 Bus1=1004.1.2.3.4 Bus2=1012.1.2.3.4 phases=3 linecode=350 Length=23.809 Units=m 
New Line.1013_8 Bus1=1013_8.1.2.3.4 Bus2=1013_9.1.2.3.4 phases=3 linecode=350 Length=0.106 Units=m
New Line.1007 Bus1=1002.1.2.3.4 Bus2=1007.1.2.3.4 phases=3 linecode=350 Length=57.479 Units=m 
New Line.1005 Bus1=1005_4.1.2.3.4 Bus2=1005.1.2.3.4 phases=3 linecode=350 Length=0.322 Units=m
New Line.1005_3 Bus1=1005_3.1.2.3.4 Bus2=1005_4.1.2.3.4 phases=3 linecode=350 Length=0.959 Units=m
New Line.1013_7 Bus1=1013_7.1.2.3.4 Bus2=1013_8.1.2.3.4 phases=3 linecode=350 Length=0.081 Units=m
New Line.1016 Bus1=1015.1.2.3.4 Bus2=1016.1.2.3.4 phases=3 linecode=350 Length=15.528 Units=m 
New Line.1002_5 Bus1=1002_5.1.2.3.4 Bus2=1002_6.1.2.3.4 phases=3 linecode=350 Length=0.227 Units=m
New Line.1009 Bus1=1009_1.1.2.3.4 Bus2=1009.1.2.3.4 phases=3 linecode=350 Length=1.065 Units=m
New Line.1006 Bus1=1006_1.1.2.3.4 Bus2=1006.1.2.3.4 phases=3 linecode=350 Length=11.629 Units=m
New Line.1008 Bus1=1008_1.1.2.3.4 Bus2=1008.1.2.3.4 phases=3 linecode=350 Length=12.581 Units=m
New Line.1008_0 Bus1=1006.1.2.3.4 Bus2=1008_1.1.2.3.4 phases=3 linecode=350 Length=5.765 Units=m

! --LOADS-----------------------------------------------------------------------------------------------------------

New load.load3059 Phases=1 Bus1=1003.2.4 kV=0.23 kW=1.0 PF=0.95 daily=shape_3059
New load.load3188 Phases=1 Bus1=1011.2.4 kV=0.23 kW=1.0 PF=0.95 daily=shape_3188
New load.load3040 Phases=1 Bus1=1015.2.4 kV=0.23 kW=1.0 PF=0.95 daily=shape_3040
New load.load3033 Phases=1 Bus1=1003.1.4 kV=0.23 kW=1.0 PF=0.95 daily=shape_3033
New load.load3178 Phases=1 Bus1=1010.3.4 kV=0.23 kW=1.0 PF=0.95 daily=shape_3178
New load.load3051 Phases=1 Bus1=1015.1.4 kV=0.23 kW=1.0 PF=0.95 daily=shape_3051
New load.load3103 Phases=3 Bus1=1009.1.2.3.4 kV=0.4 kW=1.0 PF=0.95 daily=shape_3103
New load.load3065 Phases=1 Bus1=1003.1.4 kV=0.23 kW=1.0 PF=0.95 daily=shape_3065
New load.load3081 Phases=1 Bus1=1016.1.4 kV=0.23 kW=1.0 PF=0.95 daily=shape_3081
New load.load3164 Phases=1 Bus1=1011.2.4 kV=0.23 kW=1.0 PF=0.95 daily=shape_3164
New load.load3191 Phases=1 Bus1=1016.2.4 kV=0.23 kW=1.0 PF=0.95 daily=shape_3191
New load.load3046 Phases=1 Bus1=1003.1.4 kV=0.23 kW=1.0 PF=0.95 daily=shape_3046
New load.load3182 Phases=1 Bus1=1010.2.4 kV=0.23 kW=1.0 PF=0.95 daily=shape_3182
New load.load3055 Phases=1 Bus1=1016.1.4 kV=0.23 kW=1.0 PF=0.95 daily=shape_3055
New load.load3161 Phases=1 Bus1=1011.2.4 kV=0.23 kW=1.0 PF=0.95 daily=shape_3161
New load.load3034 Phases=1 Bus1=1003.2.4 kV=0.23 kW=1.0 PF=0.95 daily=shape_3034
New load.load3155 Phases=1 Bus1=1011.1.4 kV=0.23 kW=1.0 PF=0.95 daily=shape_3155
New load.load3185 Phases=1 Bus1=1010.2.4 kV=0.23 kW=1.0 PF=0.95 daily=shape_3185
New load.load3108 Phases=3 Bus1=1016.1.2.3.4 kV=0.4 kW=1.0 PF=0.95 daily=shape_3108
New load.load3156 Phases=1 Bus1=1011.2.4 kV=0.23 kW=1.0 PF=0.95 daily=shape_3156
New load.load3080 Phases=1 Bus1=1015.3.4 kV=0.23 kW=1.0 PF=0.95 daily=shape_3080
New load.load3053 Phases=1 Bus1=1016.1.4 kV=0.23 kW=1.0 PF=0.95 daily=shape_3053
New load.load3063 Phases=1 Bus1=1003.1.4 kV=0.23 kW=1.0 PF=0.95 daily=shape_3063
New load.load3042 Phases=1 Bus1=1003.3.4 kV=0.23 kW=1.0 PF=0.95 daily=shape_3042
New load.load3116 Phases=3 Bus1=1011.1.2.3.4 kV=0.4 kW=1.0 PF=0.95 daily=shape_3116
New load.load3076 Phases=1 Bus1=1016.1.4 kV=0.23 kW=1.0 PF=0.95 daily=shape_3076
New load.load3177 Phases=1 Bus1=1010.3.4 kV=0.23 kW=1.0 PF=0.95 daily=shape_3177
New load.load3201 Phases=1 Bus1=1011.3.4 kV=0.23 kW=1.0 PF=0.95 daily=shape_3201
New load.load3057 Phases=1 Bus1=1016.2.4 kV=0.23 kW=1.0 PF=0.95 daily=shape_3057
New load.load3112 Phases=3 Bus1=1003.1.2.3.4 kV=0.4 kW=1.0 PF=0.95 daily=shape_3112
New load.load3043 Phases=1 Bus1=1016.3.4 kV=0.23 kW=1.0 PF=0.95 daily=shape_3043
New load.load3183 Phases=1 Bus1=1010.3.4 kV=0.23 kW=1.0 PF=0.95 daily=shape_3183
New load.load3100 Phases=1 Bus1=1003.3.4 kV=0.23 kW=1.0 PF=0.95 daily=shape_3100
New load.load3119 Phases=3 Bus1=1015.1.2.3.4 kV=0.4 kW=1.0 PF=0.95 daily=shape_3119
New load.load3050 Phases=1 Bus1=1015.1.4 kV=0.23 kW=1.0 PF=0.95 daily=shape_3050
New load.load3097 Phases=1 Bus1=1003.2.4 kV=0.23 kW=1.0 PF=0.95 daily=shape_3097
New load.load3054 Phases=1 Bus1=1015.2.4 kV=0.23 kW=1.0 PF=0.95 daily=shape_3054
New load.load3180 Phases=1 Bus1=1010.3.4 kV=0.23 kW=1.0 PF=0.95 daily=shape_3180
New load.load3035 Phases=1 Bus1=1015.2.4 kV=0.23 kW=1.0 PF=0.95 daily=shape_3035
New load.load3058 Phases=1 Bus1=1016.2.4 kV=0.23 kW=1.0 PF=0.95 daily=shape_3058
New load.load3044 Phases=1 Bus1=1016.2.4 kV=0.23 kW=1.0 PF=0.95 daily=shape_3044
New load.load3084 Phases=1 Bus1=1016.3.4 kV=0.23 kW=1.0 PF=0.95 daily=shape_3084
New load.load3219 Phases=1 Bus1=1009.2.4 kV=0.23 kW=1.0 PF=0.95 daily=shape_3219
New load.load3105 Phases=3 Bus1=1003.1.2.3.4 kV=0.4 kW=1.0 PF=0.95 daily=shape_3105
New load.load3195 Phases=1 Bus1=1015.1.4 kV=0.23 kW=1.0 PF=0.95 daily=shape_3195
New load.load3079 Phases=1 Bus1=1015.1.4 kV=0.23 kW=1.0 PF=0.95 daily=shape_3079
New load.load3122 Phases=3 Bus1=1010.1.2.3.4 kV=0.4 kW=1.0 PF=0.95 daily=shape_3122
New load.load3157 Phases=1 Bus1=1011.1.4 kV=0.23 kW=1.0 PF=0.95 daily=shape_3157
New load.load3184 Phases=1 Bus1=1010.2.4 kV=0.23 kW=1.0 PF=0.95 daily=shape_3184
New load.load3061 Phases=1 Bus1=1016.1.4 kV=0.23 kW=1.0 PF=0.95 daily=shape_3061
New load.load3158 Phases=1 Bus1=1011.3.4 kV=0.23 kW=1.0 PF=0.95 daily=shape_3158
New load.load3162 Phases=1 Bus1=1011.2.4 kV=0.23 kW=1.0 PF=0.95 daily=shape_3162
New load.load3098 Phases=1 Bus1=1016.2.4 kV=0.23 kW=1.0 PF=0.95 daily=shape_3098
New load.load3036 Phases=1 Bus1=1015.1.4 kV=0.23 kW=1.0 PF=0.95 daily=shape_3036
New load.load3107 Phases=3 Bus1=1016.1.2.3.4 kV=0.4 kW=1.0 PF=0.95 daily=shape_3107
New load.load3048 Phases=1 Bus1=1003.1.4 kV=0.23 kW=1.0 PF=0.95 daily=shape_3048
New load.load3321 Phases=3 Bus1=1011.1.2.3.4 kV=0.4 kW=1.0 PF=0.95 daily=shape_3321
New load.load3186 Phases=1 Bus1=1011.1.4 kV=0.23 kW=1.0 PF=0.95 daily=shape_3186
New load.load3109 Phases=3 Bus1=1016.1.2.3.4 kV=0.4 kW=1.0 PF=0.95 daily=shape_3109
New load.load3045 Phases=1 Bus1=1015.2.4 kV=0.23 kW=1.0 PF=0.95 daily=shape_3045
New load.load3039 Phases=1 Bus1=1015.3.4 kV=0.23 kW=1.0 PF=0.95 daily=shape_3039
New load.load3179 Phases=1 Bus1=1010.2.4 kV=0.23 kW=1.0 PF=0.95 daily=shape_3179
New load.load3193 Phases=1 Bus1=1015.3.4 kV=0.23 kW=1.0 PF=0.95 daily=shape_3193
New load.load3031 Phases=1 Bus1=1003.3.4 kV=0.23 kW=1.0 PF=0.95 daily=shape_3031
New load.load3124 Phases=3 Bus1=1009.1.2.3.4 kV=0.4 kW=1.0 PF=0.95 daily=shape_3124
New load.load3118 Phases=3 Bus1=1015.1.2.3.4 kV=0.4 kW=1.0 PF=0.95 daily=shape_3118
New load.load3060 Phases=1 Bus1=1003.2.4 kV=0.23 kW=1.0 PF=0.95 daily=shape_3060
New load.load3037 Phases=1 Bus1=1003.1.4 kV=0.23 kW=1.0 PF=0.95 daily=shape_3037
New load.load3192 Phases=1 Bus1=1016.3.4 kV=0.23 kW=1.0 PF=0.95 daily=shape_3192
New load.load3049 Phases=1 Bus1=1003.2.4 kV=0.23 kW=1.0 PF=0.95 daily=shape_3049
New load.load3187 Phases=1 Bus1=1011.2.4 kV=0.23 kW=1.0 PF=0.95 daily=shape_3187
New load.load3159 Phases=1 Bus1=1011.2.4 kV=0.23 kW=1.0 PF=0.95 daily=shape_3159
New load.load3181 Phases=1 Bus1=1009.1.4 kV=0.23 kW=1.0 PF=0.95 daily=shape_3181
New load.load3041 Phases=1 Bus1=1003.2.4 kV=0.23 kW=1.0 PF=0.95 daily=shape_3041
New load.load3216 Phases=1 Bus1=1009.2.4 kV=0.23 kW=1.0 PF=0.95 daily=shape_3216
New load.load3163 Phases=1 Bus1=1011.1.4 kV=0.23 kW=1.0 PF=0.95 daily=shape_3163
New load.load3812 Phases=3 Bus1=1011.1.2.3.4 kV=0.4 kW=1.0 PF=0.95 daily=shape_3812
New load.load3176 Phases=1 Bus1=1009.1.4 kV=0.23 kW=1.0 PF=0.95 daily=shape_3176
New load.load3056 Phases=1 Bus1=1016.3.4 kV=0.23 kW=1.0 PF=0.95 daily=shape_3056
New load.load3032 Phases=1 Bus1=1003.3.4 kV=0.23 kW=1.0 PF=0.95 daily=shape_3032
New load.load3062 Phases=1 Bus1=1016.2.4 kV=0.23 kW=1.0 PF=0.95 daily=shape_3062
New load.load3160 Phases=1 Bus1=1011.3.4 kV=0.23 kW=1.0 PF=0.95 daily=shape_3160
New load.load3189 Phases=1 Bus1=1011.2.4 kV=0.23 kW=1.0 PF=0.95 daily=shape_3189
New load.load3082 Phases=1 Bus1=1016.3.4 kV=0.23 kW=1.0 PF=0.95 daily=shape_3082
New load.load3095 Phases=1 Bus1=1016.2.4 kV=0.23 kW=1.0 PF=0.95 daily=shape_3095
New load.load3106 Phases=3 Bus1=1015.1.2.3.4 kV=0.4 kW=1.0 PF=0.95 daily=shape_3106
New load.load3110 Phases=3 Bus1=1016.1.2.3.4 kV=0.4 kW=1.0 PF=0.95 daily=shape_3110
New load.load3096 Phases=1 Bus1=1003.3.4 kV=0.23 kW=1.0 PF=0.95 daily=shape_3096
New load.load3194 Phases=1 Bus1=1015.3.4 kV=0.23 kW=1.0 PF=0.95 daily=shape_3194
New load.load3064 Phases=1 Bus1=1003.2.4 kV=0.23 kW=1.0 PF=0.95 daily=shape_3064
New load.load3190 Phases=1 Bus1=1016.3.4 kV=0.23 kW=1.0 PF=0.95 daily=shape_3190

! --PF -----------------------------------------------------------------------------------------------------------
set mode=Daily number=481 stepsize=60m
Calcvoltagebases
solve
BusCoords Buscord_indexed.txt
Plot circuit Power Max=1000 dots=n labels=n subs=y C1=black 1ph=3